Circuit: * Z:\home\rector\Code\exp\P3\(1)(a).asc


Date: Sat Apr 23 15:45:56 2016
Total elapsed time: 0.008 seconds.

tnom = 27
temp = 27
method = trap
totiter = 0
traniter = 0
tranpoints = 0
accept = 0
rejected = 0
matrix size = 6
fillins = 1
solver = Normal

