Circuit: * Z:\home\rector\Code\exp\P3\(1)(a)step.asc

.OP point found by inspection.

Date: Sat Apr 23 15:53:36 2016
Total elapsed time: 0.964 seconds.

tnom = 27
temp = 27
method = modified trap
totiter = 200034
traniter = 200034
tranpoints = 100018
accept = 100018
rejected = 0
matrix size = 6
fillins = 0
solver = Normal
Matrix Compiler1: 200 bytes object code size  0.3/0.2/[0.2]
Matrix Compiler2: 394 bytes object code size  0.2/0.3/[0.2]


