Circuit: * Z:\home\rector\Code\exp\P3\(2)ButLPF.asc

.OP point found by inspection.

Date: Sun Apr 24 22:51:37 2016
Total elapsed time: 0.089 seconds.

tnom = 27
temp = 27
method = modified trap
totiter = 2120
traniter = 2120
tranpoints = 1061
accept = 1060
rejected = 1
matrix size = 4
fillins = 0
solver = Normal
Matrix Compiler1: 100 bytes object code size  0.4/0.4/[0.3]
Matrix Compiler2: 248 bytes object code size  0.3/0.4/[0.3]


