Circuit: * Z:\home\rector\Code\exp\P3\(2)ButBPF.asc

.OP point found by inspection.

Date: Sun Apr 24 22:57:19 2016
Total elapsed time: 0.227 seconds.

tnom = 27
temp = 27
method = modified trap
totiter = 2134
traniter = 2134
tranpoints = 1068
accept = 1066
rejected = 2
matrix size = 6
fillins = 0
solver = Normal
Matrix Compiler1: 200 bytes object code size  0.4/0.3/[0.3]
Matrix Compiler2: 394 bytes object code size  0.3/0.4/[0.3]


