Circuit: * Z:\home\rector\Code\exp\P3\(2)ChebyLPF.asc

.OP point found by inspection.

Date: Sun Apr 24 23:00:43 2016
Total elapsed time: 0.129 seconds.

tnom = 27
temp = 27
method = modified trap
totiter = 2118
traniter = 2118
tranpoints = 1060
accept = 1060
rejected = 0
matrix size = 4
fillins = 0
solver = Normal
Matrix Compiler1: 100 bytes object code size  0.3/0.3/[0.3]
Matrix Compiler2: 248 bytes object code size  0.3/0.3/[0.3]


