Circuit: * Z:\home\rector\Code\exp\P3\cheBPF.asc

.OP point found by inspection.

Date: Sun Apr 24 23:09:13 2016
Total elapsed time: 0.132 seconds.

tnom = 27
temp = 27
method = modified trap
totiter = 2126
traniter = 2126
tranpoints = 1064
accept = 1063
rejected = 1
matrix size = 6
fillins = 0
solver = Normal
Matrix Compiler1: 200 bytes object code size  0.5/0.4/[0.3]
Matrix Compiler2: 394 bytes object code size  0.4/0.4/[0.3]


