Circuit: * Z:\home\rector\Code\exp\A2\Che.asc


Date: Sat Jun 18 09:45:32 2016
Total elapsed time: 0.022 seconds.

tnom = 27
temp = 27
method = trap
totiter = 0
traniter = 0
tranpoints = 0
accept = 0
rejected = 0
matrix size = 4
fillins = 1
solver = Normal

