Circuit: * C:\users\rector\Desktop\P3\(1)(a).asc


Date: Thu Apr 14 14:02:41 2016
Total elapsed time: 0.020 seconds.

tnom = 27
temp = 27
method = trap
totiter = 0
traniter = 0
tranpoints = 0
accept = 0
rejected = 0
matrix size = 6
fillins = 1
solver = Normal

