Circuit: * Z:\home\rector\Code\P3\(2)ButBPF.asc


Date: Mon Apr 18 16:08:19 2016
Total elapsed time: 0.033 seconds.

tnom = 27
temp = 27
method = trap
totiter = 0
traniter = 0
tranpoints = 0
accept = 0
rejected = 0
matrix size = 6
fillins = 1
solver = Normal

