Circuit: * Z:\home\rector\Code\P3\(2)ButHPF.asc


Date: Mon Apr 18 15:35:10 2016
Total elapsed time: 0.038 seconds.

tnom = 27
temp = 27
method = trap
totiter = 0
traniter = 0
tranpoints = 0
accept = 0
rejected = 0
matrix size = 4
fillins = 0
solver = Normal

