Circuit: * Z:\home\rector\Code\P3\(2)Che.asc


Date: Mon Apr 18 14:56:24 2016
Total elapsed time: 0.079 seconds.

tnom = 27
temp = 27
method = trap
totiter = 0
traniter = 0
tranpoints = 0
accept = 0
rejected = 0
matrix size = 4
fillins = 1
solver = Normal

