Circuit: * C:\users\rector\Desktop\P3\(3).asc


Date: Thu Apr 14 15:42:32 2016
Total elapsed time: 0.016 seconds.

tnom = 27
temp = 27
method = trap
totiter = 0
traniter = 0
tranpoints = 0
accept = 0
rejected = 0
matrix size = 4
fillins = 1
solver = Normal

