Circuit: * Z:\home\rector\Code\P1code\(1)(a).asc


Date: Sun Apr 17 10:38:07 2016
Total elapsed time: 0.022 seconds.

tnom = 27
temp = 27
method = trap
totiter = 0
traniter = 0
tranpoints = 0
accept = 0
rejected = 0
matrix size = 6
fillins = 1
solver = Normal

