Circuit: * Z:\home\rector\Code\P1code\APF.asc


Date: Mon Apr 18 01:35:26 2016
Total elapsed time: 0.017 seconds.

tnom = 27
temp = 27
method = trap
totiter = 0
traniter = 0
tranpoints = 0
accept = 0
rejected = 0
matrix size = 3
fillins = 0
solver = Normal

