Circuit: * Z:\home\rector\Code\P1code\RLC.asc


Date: Sun Apr 17 05:57:16 2016
Total elapsed time: 0.032 seconds.

tnom = 27
temp = 27
method = trap
totiter = 0
traniter = 0
tranpoints = 0
accept = 0
rejected = 0
matrix size = 8
fillins = 1
solver = Normal

